  Page 1                                    Tue Apr  8 22:07:24 2025

  ******************************************************************
  *                           E P A N E T                          *
  *                   Hydraulic and Water Quality                  *
  *                   Analysis for Pipe Networks                   *
  *                         Version 2.3                            *
  ******************************************************************
  
   
      Input Data File ................... /home/wladek/MiSS_DATA/leaks/J49373_4.inp
      Number of Junctions................ 8527
      Number of Reservoirs............... 1
      Number of Tanks ................... 0
      Number of Pipes ................... 8753
      Number of Pumps ................... 0
      Number of Valves .................. 0
      Headloss Formula .................. Hazen-Williams
      Nodal Demand Model ................ PDA
      Hydraulic Timestep ................ 10.00 min
      Hydraulic Accuracy ................ 0.000010
      Status Check Frequency ............ 2
      Maximum Trials Checked ............ 10
      Damping Limit Threshold ........... 0.000000
      Maximum Trials .................... 40
      Quality Analysis .................. None
      Specific Gravity .................. 1.00
      Relative Kinematic Viscosity ...... 1.00
      Relative Chemical Diffusivity ..... 1.00
      Demand Multiplier ................. 1.00
      Total Duration .................... 1440.00 min
      Reporting Criteria:
         All Nodes
         No Links
   
  Analysis begun Tue Apr  8 22:07:24 2025

  WARNING: System unbalanced at 0:00:00 hrs.
   
  WARNING: System unbalanced at 0:10:00 hrs.
   
  WARNING: System unbalanced at 0:20:00 hrs.
   
  WARNING: System unbalanced at 0:30:00 hrs.
   
  WARNING: System unbalanced at 0:40:00 hrs.
   
  WARNING: System unbalanced at 0:50:00 hrs.
   
  WARNING: System unbalanced at 1:00:00 hrs.
   
  WARNING: System unbalanced at 1:10:00 hrs.
   
  WARNING: System unbalanced at 1:20:00 hrs.
   
  WARNING: System unbalanced at 1:30:00 hrs.
   
  WARNING: System unbalanced at 1:40:00 hrs.
   
  WARNING: System unbalanced at 1:50:00 hrs.
   
  WARNING: System unbalanced at 2:00:00 hrs.
   
  WARNING: System unbalanced at 2:10:00 hrs.
   
  WARNING: System unbalanced at 2:20:00 hrs.
   
  WARNING: System unbalanced at 2:30:00 hrs.
   
  WARNING: System unbalanced at 2:40:00 hrs.
   
  WARNING: System unbalanced at 2:50:00 hrs.
   
  WARNING: System unbalanced at 3:00:00 hrs.
   
  WARNING: System unbalanced at 3:10:00 hrs.
   
  WARNING: System unbalanced at 3:20:00 hrs.
   
  WARNING: System unbalanced at 3:30:00 hrs.
   
  WARNING: System unbalanced at 3:40:00 hrs.
   
  WARNING: System unbalanced at 3:50:00 hrs.
   
  WARNING: System unbalanced at 4:00:00 hrs.
   
  WARNING: System unbalanced at 4:10:00 hrs.
   
  WARNING: System unbalanced at 4:20:00 hrs.
   
  WARNING: System unbalanced at 4:30:00 hrs.
   
  WARNING: System unbalanced at 4:40:00 hrs.
   
  WARNING: System unbalanced at 4:50:00 hrs.
   
  WARNING: System unbalanced at 5:00:00 hrs.
   
  WARNING: System unbalanced at 5:10:00 hrs.
   
  WARNING: System unbalanced at 5:20:00 hrs.
   
  WARNING: System unbalanced at 5:30:00 hrs.
   
  WARNING: System unbalanced at 5:40:00 hrs.
   
  WARNING: System unbalanced at 5:50:00 hrs.
   
  WARNING: System unbalanced at 6:00:00 hrs.
   
  WARNING: System unbalanced at 6:10:00 hrs.
   
  WARNING: System unbalanced at 6:20:00 hrs.
   
  WARNING: System unbalanced at 6:30:00 hrs.
   
  WARNING: System unbalanced at 6:40:00 hrs.
   
  WARNING: System unbalanced at 6:50:00 hrs.
   
  WARNING: System unbalanced at 7:00:00 hrs.
   
  WARNING: System unbalanced at 7:10:00 hrs.
   
  WARNING: System unbalanced at 7:20:00 hrs.
   
  WARNING: System unbalanced at 7:30:00 hrs.
   
  WARNING: System unbalanced at 7:40:00 hrs.
   
  WARNING: System unbalanced at 7:50:00 hrs.
   
  WARNING: System unbalanced at 8:00:00 hrs.
   
  WARNING: System unbalanced at 8:10:00 hrs.
   
  WARNING: System unbalanced at 8:20:00 hrs.
   
  WARNING: System unbalanced at 8:30:00 hrs.
   
  WARNING: System unbalanced at 8:40:00 hrs.
   
  WARNING: System unbalanced at 8:50:00 hrs.
   
  WARNING: System unbalanced at 9:00:00 hrs.
   
  WARNING: System unbalanced at 9:10:00 hrs.
   
  WARNING: System unbalanced at 9:20:00 hrs.
   
  WARNING: System unbalanced at 9:30:00 hrs.
   
  WARNING: System unbalanced at 9:40:00 hrs.
   
  WARNING: System unbalanced at 9:50:00 hrs.
   
  WARNING: System unbalanced at 10:00:00 hrs.
   
  WARNING: System unbalanced at 10:10:00 hrs.
   
  WARNING: System unbalanced at 10:20:00 hrs.
   
  WARNING: System unbalanced at 10:30:00 hrs.
   
  WARNING: System unbalanced at 10:40:00 hrs.
   
  WARNING: System unbalanced at 10:50:00 hrs.
   
  WARNING: System unbalanced at 11:00:00 hrs.
   
  WARNING: System unbalanced at 11:10:00 hrs.
   
  WARNING: System unbalanced at 11:20:00 hrs.
   
  WARNING: System unbalanced at 11:30:00 hrs.
   
  WARNING: System unbalanced at 11:40:00 hrs.
   
  WARNING: System unbalanced at 11:50:00 hrs.
   
  WARNING: System unbalanced at 12:00:00 hrs.
   
  WARNING: System unbalanced at 12:10:00 hrs.
   
  WARNING: System unbalanced at 12:20:00 hrs.
   
  WARNING: System unbalanced at 12:30:00 hrs.
   
  WARNING: System unbalanced at 12:40:00 hrs.
   
  WARNING: System unbalanced at 12:50:00 hrs.
   
  WARNING: System unbalanced at 13:00:00 hrs.
   
  WARNING: System unbalanced at 13:10:00 hrs.
   
  WARNING: System unbalanced at 13:20:00 hrs.
   
  WARNING: System unbalanced at 13:30:00 hrs.
   
  WARNING: System unbalanced at 13:40:00 hrs.
   
  WARNING: System unbalanced at 13:50:00 hrs.
   
  WARNING: System unbalanced at 14:00:00 hrs.
   
  WARNING: System unbalanced at 14:10:00 hrs.
   
  WARNING: System unbalanced at 14:20:00 hrs.
   
  WARNING: System unbalanced at 14:30:00 hrs.
   
  WARNING: System unbalanced at 14:40:00 hrs.
   
  WARNING: System unbalanced at 14:50:00 hrs.
   
  WARNING: System unbalanced at 15:00:00 hrs.
   
  WARNING: System unbalanced at 15:10:00 hrs.
   
  WARNING: System unbalanced at 15:20:00 hrs.
   
  WARNING: System unbalanced at 15:30:00 hrs.
   
  WARNING: System unbalanced at 15:40:00 hrs.
   
  WARNING: System unbalanced at 15:50:00 hrs.
   
  WARNING: System unbalanced at 16:00:00 hrs.
   
  WARNING: System unbalanced at 16:10:00 hrs.
   
  WARNING: System unbalanced at 16:20:00 hrs.
   
  WARNING: System unbalanced at 16:30:00 hrs.
   
  WARNING: System unbalanced at 16:40:00 hrs.
   
  WARNING: System unbalanced at 16:50:00 hrs.
   
  WARNING: System unbalanced at 17:00:00 hrs.
   
  WARNING: System unbalanced at 17:10:00 hrs.
   
  WARNING: System unbalanced at 17:20:00 hrs.
   
  WARNING: System unbalanced at 17:30:00 hrs.
   
  WARNING: System unbalanced at 17:40:00 hrs.
   
  WARNING: System unbalanced at 17:50:00 hrs.
   
  WARNING: System unbalanced at 18:00:00 hrs.
   
  WARNING: System unbalanced at 18:10:00 hrs.
   
  WARNING: System unbalanced at 18:20:00 hrs.
   
  WARNING: System unbalanced at 18:30:00 hrs.
   
  WARNING: System unbalanced at 18:40:00 hrs.
   
  WARNING: System unbalanced at 18:50:00 hrs.
   
  WARNING: System unbalanced at 19:00:00 hrs.
   
  WARNING: System unbalanced at 19:10:00 hrs.
   
  WARNING: System unbalanced at 19:20:00 hrs.
   
  WARNING: System unbalanced at 19:30:00 hrs.
   
  WARNING: System unbalanced at 19:40:00 hrs.
   
  WARNING: System unbalanced at 19:50:00 hrs.
   
  WARNING: System unbalanced at 20:00:00 hrs.
   
  WARNING: System unbalanced at 20:10:00 hrs.
   
  WARNING: System unbalanced at 20:20:00 hrs.
   
  WARNING: System unbalanced at 20:30:00 hrs.
   
  WARNING: System unbalanced at 20:40:00 hrs.
   
  WARNING: System unbalanced at 20:50:00 hrs.
   
  WARNING: System unbalanced at 21:00:00 hrs.
   
  WARNING: System unbalanced at 21:10:00 hrs.
   
  WARNING: System unbalanced at 21:20:00 hrs.
   
  WARNING: System unbalanced at 21:30:00 hrs.
   
  WARNING: System unbalanced at 21:40:00 hrs.
   
  WARNING: System unbalanced at 21:50:00 hrs.
   
  WARNING: System unbalanced at 22:00:00 hrs.
   
  WARNING: System unbalanced at 22:10:00 hrs.
   
  WARNING: System unbalanced at 22:20:00 hrs.
   
  WARNING: System unbalanced at 22:30:00 hrs.
   
  WARNING: System unbalanced at 22:40:00 hrs.
   
  WARNING: System unbalanced at 22:50:00 hrs.
   
  WARNING: System unbalanced at 23:00:00 hrs.
   
  WARNING: System unbalanced at 23:10:00 hrs.
   
  WARNING: System unbalanced at 23:20:00 hrs.
   
  WARNING: System unbalanced at 23:30:00 hrs.
   
  WARNING: System unbalanced at 23:40:00 hrs.
   
  WARNING: System unbalanced at 23:50:00 hrs.
   
  WARNING: System unbalanced at 24:00:00 hrs.
   
  Analysis ended Tue Apr  8 22:07:44 2025

   
  Node Results at 0:00:00 hrs:
  ----------------------------------------------
                     Demand      Head  Pressure
  Node                  L/s         m         m
  ----------------------------------------------
  J65539               0.00    123.48      1.78
  J32770               0.00    126.35      0.02
  J65541               0.01    121.29      0.53
  J5                   0.00    124.83     -6.26
  J49158               0.01    120.67      0.27
  J16392               0.00    123.65     -2.09
  J16393               0.00    122.57      0.96
  J65550               0.00    125.21     -4.74
  J16400               0.00    122.57      0.99
  J49169              -0.00    125.26     -3.75
  J32786               0.00    147.03     24.85
  J49170              -0.00    107.11     -3.85
  J49171               0.01    115.05      0.76
  J32787              -0.00    122.72     -1.53
  J16404               0.00    126.77     -4.97
  J49172               0.03    128.51      0.64
  J21                  0.00    124.83     -7.05
  J22                  0.00    124.83     -7.05
  J49174              -0.00    125.18     -1.34
  J49180               0.05    128.05      3.41
  J29                  0.00    124.83     -6.09
  J65566              -0.00    126.83     -0.93
  J32801              -0.00    128.38     -4.90
  J16418               0.00    121.70      0.46
  J65578              -0.00    129.08     -7.26
  J49196               0.01    126.73      1.01
  J49203               0.00    158.30     34.54
  J65590               0.00    131.49     -2.98
  J16440               0.00    122.58      1.20
  J49208              -0.00    123.89     -2.56
  J49209               0.00    128.27      3.90
  J16442               0.00    126.77     -3.11
  J65597              -0.00    125.20     -2.25
  J65596              -0.00    124.84     -5.38
  J49214              -0.00    128.86     -0.02
  J65598               0.01    127.97      4.00
  J16448               0.00    123.65     -1.98
  J16449               0.00    126.77     -5.05
  J65604               0.00    144.31     20.76
  J65607              -0.00    125.18     -2.30
  J49225              -0.00    129.01     -2.15
  J65613               0.00    121.65      0.60
  J49232               0.00    133.47     10.41
  J49233               0.00    117.86      0.06
  J32849               0.03    118.65      0.23
  J49235              -0.00    125.21     -4.80
  J16468               0.00    123.65     -2.02
  J65621              -0.00    120.66     -0.85
  J65620               0.00    128.08      4.69
  J86                  0.00    124.83     -6.70
  J65622               0.00    119.91      0.06
  J65625               0.01    126.87      1.42
  J16478              -0.00    123.65     -2.00
  J49247               0.01    126.46      2.16
  J49252               0.00    128.50      4.04
  J49255               0.00    122.30     -0.60
  J16488               0.00    126.77     -3.00
  J65643               0.00    124.83     -4.83
  J65642               0.02    117.48      0.12
  J65644              -0.00    107.11     -5.84
  J65647               0.00    124.60     -0.21
  J49264               0.03    120.14      0.84
  J118                 0.00    124.83     -9.28
  J16505               0.00    136.43     14.75
  J65659              -0.00    124.67     -1.48
  J16507               0.00    122.70      0.72
  J49276               0.00    125.27      2.63
  J49277               0.01    117.30      0.60
  J32893               0.00    107.11     -4.86
  J65665               0.00    126.86      0.05
  J32899              -0.00    118.00     -0.81
  J131                 0.00    126.41      2.04
  J49286              -0.00    118.84     -2.04
  J16518               0.00    126.77     -3.22
  J49292               0.00    125.50      2.42
  J49297              -0.00    125.23     -0.66
  J16529               0.00    122.60      0.99
  J146                 0.01    126.38      1.15
  J65682               0.00    139.90     16.02
  J65693               0.01    123.49      0.14
  J49312               0.00    124.39     -3.97
  J16544               0.00    126.77     -5.04
  J16545               0.00    122.63      0.57
  J49316               0.00    125.69     -0.77
  J167                 0.00    126.36      0.03
  J16551               0.00    122.64      0.40
  J49320               0.00    149.62     26.44
  J32937               0.05    127.45      2.39
  J65704              -0.00    124.83     -5.74
  J49327               0.03    132.14      8.14
  J49328              -0.00    126.76     -2.35
  J179                 0.00    124.59     -0.26
  J49331              -0.00    107.11     -4.05
  J65723               0.00    123.71      0.35
  J186                 0.00    126.36     -0.42
  J49338               0.00    125.68      1.69
  J65725              -0.00    128.99     -1.67
  J49341              -0.00    107.11     -4.32
  J190                 0.00    124.83     -6.65
  J65729               0.00    126.85     -0.96
  J32962               0.01    136.93     15.73
  J16578               0.00    126.77     -5.01
  J65731              -0.00    107.11     -4.00
  J65730               0.00    126.86      0.04
  J49347              -0.00    126.70     -2.71
  J49348               0.00    125.29     -2.68
  J65735              -0.00    124.63     -1.15
  J65737               0.00    126.86      0.15
  J16584               0.00    122.67      0.47
  J201                 0.00    124.83     -8.92
  J65739              -0.00    122.46     -0.85
  J65738               0.00    126.80     -0.59
  J32975               0.00    129.29      1.46
  J16591               0.00    123.54     -0.28
  J32976              -0.00    107.11     -4.15
  J49361              -0.00    128.96     -1.20
  J65752               0.00    115.46     -0.01
  J65755               0.01    139.57     16.28
  J49370               0.01    125.18      1.82
  J65754              -0.00    126.82     -0.03
  J49373              -0.00    107.11     -4.05
  J65756              -0.00    126.85     -2.17
  J65758               0.00    127.70      4.24
  J65765              -0.00    107.11     -3.54
  J65764              -0.00    128.95     -0.78
  J32997              -0.00    118.10     -0.26
  J65767              -0.00    129.00     -1.79
  J49383              -0.00    124.41     -2.46
  J65769              -0.00    126.61     -0.31
  J232                 0.00    126.53      2.33
  J49387               0.06    132.30      0.09
  J65772              -0.00    126.86     -2.20
  J239                 0.00    124.96      0.26
  J16624               0.00    119.34     -1.77
  J65779               0.02    126.86      0.56
  J33012              -0.00    115.67     -0.20
  J49396              -0.00    124.83     -6.84
  J65782               0.00    120.78      1.18
  J49399               0.00    123.73     -1.06
  J49400               0.00    121.66      0.48
  J33017               0.00    129.08     -7.10
  J49401              -0.00    125.00     -3.11
  J16635               0.00    126.77     -3.68
  J65789              -0.00    125.24     -4.12
  J65788               0.00    128.49      4.76
  J49409              -0.00    122.38     -0.65
  J65795              -0.00    129.00     -1.71
  J16643               0.00    126.77     -3.71
  J16644               0.00    126.77     -3.72
  J49417               0.01    117.27      0.37
  J65803              -0.00    120.81     -1.36
  J16650               0.00    137.18     15.62
  J65802               0.00    127.75      1.05
  J49420              -0.00    128.23     -2.30
  J49423               0.00    125.83      1.93
  J272                 0.00    124.83     -6.10
  J49425              -0.00    125.30     -3.62
  J49426               0.01    121.23      0.43
  J33042               0.00    141.39     17.50
  J276                 0.00    124.83     -7.23
  J33044              -0.00    128.27     -2.31
  J65812              -0.00    124.83     -4.92
  J49429              -0.00    124.83     -7.64
  J33047               0.02    156.11     32.97
  J65816               0.00    126.88      0.85
  J33049              -0.00    125.30     -2.20
  J16668               0.00    136.79     15.72
  J49437               0.00    121.65      0.57
  J287                 0.00    124.64     -0.15
  J65822              -0.00    124.95     -4.59
  J49439              -0.00    124.40     -3.24
  J289                 0.00    124.83     -8.38
  J16674               0.00    136.79     15.68
  J65829              -0.00    128.94     -0.70
  J65831               0.00    109.45      0.25
  J65830               0.00    128.47      0.17
  J65833               0.01    130.26      5.88
  J49450               0.02    142.27     19.72
  J65835              -0.00    128.92     -0.93
  J65845              -0.00    122.54     -1.07
  J49462               0.00    128.45      4.58
  J65847              -0.00    126.85     -2.31
  J49463               0.00    126.32     -0.16
  J65848              -0.00    129.08     -7.05
  J16697               0.00    119.08     -1.74
  J65851              -0.00    107.11     -1.97
  J65850              -0.00    118.45     -1.12
  J49469              -0.00    107.11     -3.97
  J49472              -0.00    125.37     -2.21
  J65857               0.00    126.87      1.10
  J65859              -0.00    126.85     -1.26
  J49475              -0.00    107.11     -4.93
  J65866              -0.00    125.27     -3.89
  J65869               0.00    125.27     -3.66
  J33101               0.00    124.96     -4.16
  J49486              -0.00    125.25     -4.02
  J65870              -0.00    124.83     -7.90
  J65872              -0.00    126.77     -5.26
  J33108               0.00    121.54      1.13
  J65879               0.01    162.07     37.94
  J65881               0.00    117.51      0.08
  J16729               0.00    126.77     -3.82
  J345                 0.00    124.83     -5.72
  J65880              -0.00    126.85     -1.55
  J65883               0.01    125.15      1.80
  J65882              -0.00    118.84     -2.03
  J49499               0.00    125.35      2.84
  J33115              -0.00    126.77     -3.75
  J49500              -0.00    107.11     -3.69
  J65885               0.00    120.54      0.81
  J65889              -0.00    107.11     -4.46
  J354                 0.00    124.83     -6.28
  J65892               0.00    124.29      2.13
  J16742               0.00    126.79     -3.41
  J33126               0.01    130.12      8.10
  J359                 0.00    124.83     -8.19
  J65896              -0.00    126.86     -2.20
  J49514              -0.00    126.75     -0.72
  J65899              -0.00    128.82     -7.60
  J49515               0.00    121.65      0.22
  J65898               0.02    122.72      0.77
  J49517              -0.00    124.83     -6.34
  J49518               0.02    143.46     19.90
  J49520              -0.00    121.53     -0.55
  J65905              -0.00    126.86     -0.51
  J65906              -0.00    124.94     -1.37
  J374                 0.00    126.70      1.48
  J49527              -0.00    126.99     -1.05
  J376                 0.00    126.70      1.43
  J65913              -0.00    126.85     -0.41
  J65912              -0.00    126.77     -6.10
  J49529              -0.00    120.22     -0.51
  J49531               0.00    124.57      1.49
  J380                 0.00    125.30      1.15
  J33148               0.00    124.68      0.69
  J65916               0.00    126.87      1.19
  J49534              -0.00    126.81     -3.22
  J65921               0.00    131.82      0.00
  J33154               0.00    124.41     -1.88
  J33157               0.01    121.45      1.18
  J49542               0.00    124.54      1.30
  J391                 0.01    126.70      1.35
  J65932              -0.00    126.81     -0.19
  J49549              -0.00    118.66     -0.17
  J65935               0.00    125.20      0.30
  J65934               0.01    139.89     16.01
  J49557               0.00    122.60      1.23
  J33174               0.00    117.54      0.38
  J65947              -0.00    118.84     -1.98
  J49563              -0.00    120.70     -1.23
  J65952               0.01    125.50      2.22
  J420                 0.00    124.83     -7.89
  J65957               0.00    128.32      7.53
  J65956              -0.00    124.99     -1.10
  J49574               0.00    133.87     15.98
  J16806               0.00    121.69      0.56
  J424                 0.00    124.83     -7.82
  J49581              -0.00    118.75     -1.59
  J65967              -0.00    126.75     -0.71
  J65966               0.01    120.73      1.31
  J431                 0.00    124.74      0.31
  J49584              -0.00    107.11     -6.30
  J33201               0.01    125.39      4.12
  J65971              -0.00    126.86     -1.97
  J434                 0.00    124.83     -5.31
  J49590              -0.00    107.11     -5.67
  J439                 0.00    124.83     -7.72
  J33210               0.00    124.98     -3.31
  J33212              -0.00    126.70     -2.52
  J49597               0.00    130.04      5.89
  J16830               0.00    126.80     -2.78
  J65985               0.00    129.06     -2.28
  J65984              -0.00    118.73     -1.31
  J49602               0.00    120.80     -0.51
  J451                 0.00    124.83     -7.02
  J65988               0.00    120.76      2.13
  J65992              -0.00    126.85     -0.82
  J33226               0.00    123.27      0.11
  J33229              -0.00    125.20     -4.94
  J65996               0.00    117.51      0.27
  J49614              -0.00    125.44     -1.73
  J16848               0.00    126.80     -2.62
  J49621               0.00    126.32     -2.06
  J66006               0.00    125.69      2.45
  J49625               0.00    135.27     14.14
  J66010              -0.00    131.49     -2.90
  J49627               0.00    126.71     -2.49
  J66012               0.00    125.00      0.02
  J33246               0.00    134.47     12.05
  J66014               0.00    129.19     -4.64
  J479                 0.00    125.31      1.59
  J33247               0.00    124.98     -3.29
  J66017               0.00    123.87      1.75
  J49636              -0.00    125.23     -1.36
  J33254               0.00    135.09     12.76
  J16870               0.00    118.84     -1.54
  J66028               0.00    129.06     -1.87
  J49651              -0.00    123.27     -0.19
  J66039               0.00    139.26     17.69
  J66038               0.00    124.83     -8.59
  J49657               0.00    129.82      1.12
  J49659               0.08    129.70      4.83
  J49661               0.01    124.73      0.58
  J49664               0.00    126.96     -0.23
  J16897               0.00    126.71     -2.41
  J66051              -0.00    130.65     -4.26
  J33282               0.00    125.67      4.42
  J33286               0.01    130.15      5.76
  J49672               0.00    118.76     -1.44
  J66059              -0.00    124.87     -5.95
  J66058               0.00    116.53      4.14
  J66061              -0.00    124.36     -0.03
  J49677              -0.00    124.40     -3.73
  J526                 0.00    125.31      1.85
  J49679               0.01    121.65      0.39
  J16912               0.00    126.81     -2.81
  J33297               0.01    137.20     15.93
  J66069              -0.00    126.86     -0.87
  J66070              -0.00    129.06     -1.90
  J33304              -0.00    124.96     -4.46
  J66075              -0.00    129.01     -4.88
  J49691              -0.00    125.19     -0.67
  J49693              -0.00    126.73     -0.76
  J66081              -0.00    124.41     -2.30
  J16929               0.00    126.81     -2.67
  J66080               0.00    117.89      0.00
  J66091              -0.00    126.80     -3.13
  J66096              -0.00    115.71     -0.06
  J66100               0.00    124.32      0.95
  J66102              -0.00    124.83     -5.48
  J66105              -0.00    126.85     -2.42
  J49723               0.01    124.93      1.65
  J66109              -0.00    126.85     -2.22
  J49725              -0.00    121.93     -2.96
  J16959              -0.00    126.71     -2.58
  J575                 0.00    124.91      0.61
  J66115              -0.00    126.85     -2.04
  J66117              -0.00    125.24     -4.11
  J49733               0.00    133.07     10.29
  J16965               0.00    126.81     -2.78
  J66119              -0.00    124.38     -2.94
  J66124               0.00    125.06     -0.71
  J66129               0.01    125.17      0.58
  J66128               0.00    128.27      0.76
  J49745              -0.00    118.65     -0.20
  J49747               0.00    128.85      5.74
  J33367               0.00    121.44      1.03
  J66136               0.01    121.02      0.66
  J49753              -0.00    119.68     -0.03
  J49755               0.00    139.79     17.85
  J604                 0.00    126.70      0.79
  J66143               0.00    149.51     26.12
  J66145               0.01    120.91      0.14
  J66144               0.00    126.86      0.56
  J49763              -0.00    125.27     -3.67
  J66148              -0.00    120.33     -1.74
  J16999               0.00    137.18     15.80
  J33383              -0.00    126.80     -3.87
  J66150              -0.00    125.23     -4.46
  J66153              -0.00    126.78     -3.51
  J49768               0.00    122.57     -0.07
  J33387              -0.00    128.32     -3.60
  J66161              -0.00    128.92     -0.92
  J49779               0.00    126.86     -0.05
  J628                 0.00    125.35      3.08
  J33398               0.00    144.19     20.88
  J631                 0.00    125.35      3.08
  J49791              -0.00    107.11     -4.27
  J66177              -0.00    124.83     -5.45
  J49795              -0.00    119.87     -1.93
  J49798              -0.00    107.11     -3.28
  J66185              -0.00    124.60     -0.35
  J17035               0.00    122.08      0.94
  J49803               0.01    137.24     18.44
  J66195              -0.00    126.86     -2.05
  J49810               0.00    125.21     -4.82
  J49812              -0.00    125.26     -2.90
  J49817              -0.00    123.64     -0.11
  J49820               0.00    125.20      0.29
  J17057               0.00    118.77     -1.29
  J49825               0.01    121.76      0.39
  J66208              -0.00    107.11     -4.61
  J49826              -0.00    125.18     -2.46
  J49827              -0.00    125.00     -1.62
  J66212              -0.00    119.94     -1.95
  J66215              -0.00    126.86     -2.42
  J49830              -0.00    125.20     -5.03
  J66214               0.00    119.92      0.49
  J49837              -0.00    126.81     -4.38
  J66223              -0.00    125.19     -3.36
  J686                 0.00    125.02      0.57
  J33454               0.00    128.76      4.61
  J66222               0.01    124.33      0.82
  J17077               0.00    124.28     -2.18
  J66228              -0.00    126.80     -3.00
  J49846               0.00    121.65      0.45
  J66233               0.01    126.86      0.32
  J33464               0.00    127.64     -2.23
  J66232              -0.00    121.70     -0.54
  J49852              -0.00    125.69     -0.01
  J49853               0.01    140.48     16.65
  J49858               0.01    125.23      0.53
  J66249               0.00    107.11     -5.50
  J33485               0.00    120.40     -1.40
  J17101               0.00    126.09      0.09
  J718                 0.00    124.83     -6.65
  J17112              -0.00    126.80     -3.41
  J17114               0.00    121.50      0.40
  J33499               0.00    126.01      0.46
  J49889              -0.00    125.29     -3.49
  J49890              -0.00    123.89     -2.58
  J739                 0.00    125.35      2.80
  J66274               0.00    125.85      0.44
  J33508               0.01    125.91      5.68
  J740                 0.00    125.35      2.83
  J33509               0.00    126.69      1.45
  J66279              -0.00    124.41     -3.02
  J66281               0.00    120.00      0.21
  J49898               0.01    147.36     26.15
  J33515               0.00    125.01     -2.82
  J66282              -0.00    118.19     -0.54
  J49905              -0.00    124.83     -6.69
  J33523              -0.00    128.41     -6.08
  J17142               0.00    124.62     -1.87
  J66295               0.01    124.35      0.60
  J759                 0.00    126.72      1.22
  J17145               0.00    137.06     15.79
  J49913              -0.00    126.78     -3.13
  J33535               0.00    121.25      1.77
  J49922              -0.00    125.27     -3.79
  J33539              -0.00    107.11     -3.76
  J66309              -0.00    124.83     -8.71
  J33542               0.00    128.34     -0.14
  J66311              -0.00    128.98     -1.37
  J49926               0.00    125.31      2.74
  J66310              -0.00    126.77     -3.42
  J66313               0.00    109.02     -0.20
  J49930               0.00    124.36     -0.58
  J17165               0.00    136.73     15.63
  J66319              -0.00    126.32     -0.45
  J66318              -0.00    126.85     -2.41
  J17172               0.00    121.46      0.46
  J49941               0.00    121.93     -3.29
  J17174               0.00    126.12      0.11
  J49944              -0.00    122.55     -0.26
  J66329              -0.00    124.68     -0.34
  J33564              -0.00    125.31     -3.47
  J66333               0.01    135.59     13.53
  J66334               0.01    126.32      0.69
  J17184               0.00    126.80     -3.93
  J66336              -0.00    126.80     -3.02
  J49955              -0.00    125.37     -1.84
  J66341              -0.00    124.67     -3.19
  J17189               0.00    126.80     -4.20
  J66344               0.01    120.36      8.12
  J17193              -0.00    126.80     -3.81
  J814                 0.00    124.83     -6.00
  J17200               0.00    126.15      0.01
  J33585              -0.00    120.79     -1.22
  J33586               0.00    123.61      2.88
  J66355              -0.00    126.85     -0.87
  J66361               0.00    125.50      2.07
  J66362               0.00    124.91      0.67
  J49980              -0.00    125.49     -0.19
  J66368               0.00    118.00     -0.17
  J66371               0.01    126.85      0.39
  J17220               0.00    137.01     15.75
  J66375              -0.00    124.60     -0.49
  J841                 0.00    125.36      2.97
  J845                 0.00    125.36      2.95
  J17229               0.00    121.93      1.05
  J49998              -0.00    124.37     -0.81
  J848                 0.00    124.83     -6.08
  J66387              -0.00    120.45     -1.60
  J50002               0.00    125.74      2.94
  J33618              -0.00    125.33     -2.31
  J66390               0.07    127.32      0.85
  J17240               0.00    121.92      1.05
  J66392              -0.00    125.11     -0.11
  J17242               0.00    121.92      1.05
  J50012               0.00    125.18      0.55
  J17245               0.01    126.08      0.03
  J66398               0.00    126.76     -2.52
  J33632              -0.00    120.15     -0.79
  J33634               0.03    126.66      2.46
  J66405              -0.00    117.51     -0.05
  J66408              -0.00    126.94     -1.76
  J66412               0.00    132.24      0.56
  J50029              -0.00    107.11     -3.62
  J66415              -0.00    124.38     -2.72
  J878                 0.00    125.36      1.91
  J66416              -0.00    126.68     -0.06
  J33649               0.01    125.52      3.41
  J66419              -0.00    126.86     -1.64
  J33653               0.00    128.87     -0.20
  J885                 0.00    125.28      0.43
  J66429              -0.00    124.69     -0.12
  J897                 0.00    124.83     -5.81
  J66435               0.00    117.51      0.14
  J50053               0.01    129.00      4.54
  J901                 0.00    125.36      2.79
  J50055               0.00    126.41      1.23
  J50057               0.00    120.23      1.44
  J17292               0.00    126.77     -5.34
  J50060               0.00    137.39     14.98
  J17294               0.00    137.01     15.77
  J910                 0.00    125.36      2.86
  J50067              -0.00    126.76     -2.58
  J33687               0.00    129.97      5.64
  J17309               0.00    126.80     -4.25
  J66462              -0.00    107.11     -5.94
  J50079              -0.00    125.29     -3.40
  J17315              -0.00    126.80     -4.25
  J50087               0.01    125.68      2.17
  J66473              -0.00    118.84     -2.25
  J33704              -0.00    126.80     -3.86
  J66474               0.00    127.01      3.90
  J50092              -0.00    124.83     -6.02
  J50093               0.00    125.30      2.42
  J66476              -0.00    126.86     -0.68
  J942                 0.00    125.37      3.39
  J50098               0.00    128.33      3.94
  J17332               0.00    126.81     -4.23
  J50104               0.00    124.83     -5.74
  J50105              -0.00    124.83     -5.40
  J66491              -0.00    124.47     -1.59
  J50108              -0.00    125.29     -2.88
  J66492               0.01    138.49     15.76
  J66494              -0.00    126.86     -1.70
  J50112               0.00    107.11     -4.10
  J66499              -0.00    118.42     -0.44
  J50114               0.00    121.61      0.17
  J33734              -0.00    126.78     -3.98
  J66502               0.00    120.74      1.24
  J17351              -0.00    126.81     -4.37
  J66504               0.01    126.71      1.29
  J50121               0.00    124.40     -4.05
  J66507               0.01    135.38     15.37
  J33738               0.01    116.63      0.01
  J17355               0.00    130.03      1.31
  J50124               0.00    118.63      0.48
  J66508               0.05    127.90      2.88
  J33748              -0.00    126.86     -1.02
  J66517               0.00    129.06     -1.94
  J66520              -0.00    124.40     -3.26
  J50139               0.01    124.95      0.14
  J17372               0.00    121.68      0.39
  J17373              -0.00    126.09     -0.04
  J66524               0.00    117.29      0.45
  J993                 0.00    125.49      0.65
  J995                 0.00    125.49      0.77
  J66533              -0.00    124.05     -0.07
  J66535              -0.00    126.81     -0.39
  J17383               0.00    126.81     -4.30
  J66539               0.00    126.15      1.77
  J1003                0.00    125.49      0.94
  J50155              -0.00    125.18     -3.79
  J66540              -0.00    126.77     -0.86
  J17390               0.00    126.80     -4.32
  J66543              -0.00    121.28     -1.18
  J66542               0.00    126.22      1.12
  J17391               0.00    126.80     -4.32
  J50162              -0.00    124.40     -4.11
  J66546              -0.00    125.21     -3.05
  J66549               0.00    118.70      1.68
  J1014                0.00    125.50      0.69
  J33788              -0.00    126.86     -1.78
  J33790               0.01    120.88      0.48
  J17406               0.00    121.68      0.38
  J66562               0.00    107.11     -4.42
  J1029                0.00    126.73      1.07
  J1032                0.00    120.70     -0.90
  J50190               0.00    130.32      7.02
  J33807               0.00    126.23      0.30
  J50192               0.00    149.80     26.42
  J33809               0.01    129.22      5.00
  J1043                0.00    125.51      0.67
  J50200               0.05    129.28      4.85
  J50204               0.01    136.32     14.35
  J17442               0.00    121.65      0.25
  J66596              -0.00    126.86     -2.20
  J1062                0.00    125.41      4.22
  J50216               0.01    125.33      2.41
  J66602              -0.00    124.38     -3.00
  J1069                0.00    125.51      2.65
  J50222              -0.00    125.23     -4.05
  J66607               0.00    117.89      0.01
  J50228               0.01    128.16      3.12
  J50229               0.00    162.10     38.00
  J66612              -0.00    126.77     -5.33
  J50230              -0.00    123.65     -2.31
  J50231               0.00    125.57      3.10
  J1081                0.00    125.42      4.06
  J50236              -0.00    128.92     -0.93
  J50240               0.00    126.85      0.25
  J50241              -0.00    125.26     -2.99
  J33857               0.02    139.82     17.14
  J50242              -0.00    126.78     -1.05
  J66627               0.00    139.63     16.37
  J66629              -0.00    124.99     -0.00
  J66628               0.00    125.16      2.74
  J50257              -0.00    124.83     -6.01
  J17491               0.00    124.07     -2.46
  J50261              -0.00    125.23     -1.23
  J33878              -0.00    126.86     -0.54
  J66646               0.00    125.95      0.36
  J50266              -0.00    122.55     -0.53
  J50267              -0.00    126.81     -4.46
  J66650               0.00    134.78     13.09
  J66653               0.01    120.07      1.08
  J50271               0.01    124.73      0.37
  J50272               0.00    134.36     11.57
  J33890              -0.00    124.83     -6.63
  J66658               0.00    134.35     14.14
  J66660               0.00    126.73      1.18
  J50278              -0.00    124.40     -4.22
  J66663              -0.00    107.11     -4.37
  J66662               0.00    126.08      0.37
  J66665              -0.00    118.76     -1.70
  J66667               0.00    117.51      0.27
  J66666               0.00    126.77     -3.65
  J17521              -0.00    123.65     -2.49
  J66677              -0.00    126.85     -1.20
  J50296               0.00    125.01     -2.57
  J66680              -0.00    126.85     -1.63
  J1145                0.00    125.53      0.98
  J66682              -0.00    126.86     -2.25
  J66688              -0.00    120.46     -0.77
  J66692               0.00    126.86      0.64
  J17542               0.00    126.09     -0.08
  J17544               0.00    121.68      0.36
  J66699              -0.00    126.85     -1.02
  J66701               0.00    127.57      0.66
  J66703              -0.00    128.78     -7.12
  J50318               0.00    136.63     12.68
  J1166                0.00    125.54      0.98
  J66704              -0.00    127.65     -2.55
  J1170                0.00    121.57     -0.51
  J66707              -0.00    107.11     -3.88
  J33945               0.00    129.65      6.04
  J17563               0.00    126.81     -3.69
  J50332              -0.00    107.11     -4.15
  J33948               0.00    121.16      0.88
  J66718              -0.00    126.17     -0.18
  J17568               0.00    126.71     -2.75
  J66720              -0.00    126.86     -1.66
  J50337              -0.00    125.25     -2.98
  J50338               0.00    149.92     26.81
  J1187                0.00    124.83     -5.76
  J50340               0.00    107.11     -4.56
  J17574               0.00    126.10     -0.06
  J66726               0.00    126.87      1.15
  J17575               0.00    123.58     -1.15
  J50345              -0.00    108.01     -2.01
  J17578               0.00    121.74      1.14
  J66733              -0.00    107.11     -3.60
  J66737              -0.00    107.11     -5.61
  J50356               0.00    129.71     -6.28
  J66740              -0.00    128.99     -7.01
  J1206                0.00    124.83     -7.04
  J1207                0.00    125.52      1.82
  J66742              -0.00    126.59     -0.78
  J50359              -0.00    126.86     -0.96
  J66745              -0.00    120.06     -1.49
  J50360              -0.00    107.11     -3.75
  J66747              -0.00    118.77     -1.71
  J50362              -0.00    122.72     -0.35
  J33979              -0.00    126.76     -1.65
  J50364               0.00    128.31     -2.65
  J66753               0.02    119.91      0.43
  J50370              -0.00    117.78     -0.10
  J50372              -0.00    107.11     -4.19
  J50380              -0.00    119.80     -0.13
  J66769              -0.00    124.83     -5.99
  J50385              -0.00    124.67     -1.32
  J50386               0.01    162.20     38.41
  J1239                0.00    125.51      2.97
  J50393               0.11    122.87      0.41
  J34010              -0.00    126.81     -2.87
  J50394              -0.00    118.89     -0.07
  J66778              -0.00    118.45     -0.97
  J50396               0.00    125.33      2.41
  J66781              -0.00    125.01     -1.97
  J1248                0.00    125.51      3.47
  J50401              -0.00    107.11     -4.47
  J50408              -0.00    118.65     -0.48
  J66792               0.00    128.34     -4.16
  J34033               0.00    123.55     -0.52
  J34034               0.00    128.35      4.99
  J50420               0.00    132.14      8.61
  J17653               0.00    127.54     -0.36
  J50422               0.01    139.80     17.42
  J1271                0.00    125.65      0.48
  J66806              -0.00    128.92     -0.79
  J17660               0.00    126.81     -3.00
  J50428              -0.00    122.57     -0.10
  J66815              -0.00    122.55     -0.26
  J1279                0.00    125.58      0.89
  J34050               0.00    137.24     15.90
  J50434               0.00    130.87      7.89
  J50436               0.00    136.58     14.66
  J34054               0.00    125.91     -0.85
  J50443              -0.00    125.29     -3.41
  J66836               0.00    130.35      5.95
  J17687               0.00    121.67      0.29
  J1307                0.00    125.57      2.07
  J50463              -0.00    128.65     -1.28
  J1311                0.00    124.83     -4.88
  J66848               0.00    121.40      1.11
  J66855               0.00    126.96      1.50
  J50470              -0.00    107.11     -4.42
  J50471              -0.00    124.40     -2.57
  J34089               0.02    126.17      0.28
  J50475               0.00    121.05      0.83
  J50476              -0.00    125.18     -0.23
  J66863              -0.00    118.76     -1.79
  J50479               0.02    127.90      4.95
  J50480               0.01    118.85      0.22
  J66864              -0.00    124.39     -3.24
  J1330                0.00    124.83     -5.30
  J50482              -0.00    107.11     -4.52
  J17717               0.00    126.32     -0.95
  J17718              -0.00    126.81     -3.33
  J34104               0.01    120.38      1.50
  J50489               0.00    126.92     -1.70
  J34108               0.00    125.36      2.22
  J50497               0.01    139.79     17.62
  J1346                0.00    125.57      3.26
  J17735              -0.00    126.81     -3.48
  J66891               0.00    126.70      0.85
  J50506               0.00    125.15      3.87
  J34128              -0.00    124.89     -5.29
  J17746              -0.00    126.81     -3.50
  J34130               0.00    128.35     -4.99
  J66898               0.01    117.30      0.62
  J1364                0.00    122.56      0.01
  J66900              -0.00    118.81     -2.28
  J50517               0.00    129.93      1.29
  J50522              -0.00    122.39     -0.90
  J50525              -0.00    107.11     -4.41
  J50527              -0.00    125.23     -1.16
  J17762              -0.00    126.81     -3.53
  J34147               0.01    121.46      1.20
  J50535               0.07    122.36      0.01
  J1384                0.00    122.76      0.08
  J50536              -0.00    125.22     -5.01
  J50537              -0.00    125.69     -0.69
  J1388                0.00    124.83     -5.38
  J66927               0.01    128.46      3.88
  J1394                0.00    124.83     -5.27
  J66932              -0.00    107.11     -4.15
  J17785               0.00    121.65      0.56
  J50554              -0.00    107.11     -4.96
  J1403                0.00    124.83     -5.27
  J1411                0.00    125.76      0.39
  J34186               0.01    125.67      2.39
  J66954               0.00    122.45     -0.04
  J66956              -0.00    107.11     -3.99
  J34190              -0.00    125.30     -2.37
  J66961               0.00    125.01     -2.09
  J1426                0.00    124.83     -5.30
  J50579               0.00    126.32      2.13
  J66965              -0.00    124.83     -6.45
  J66964               0.00    134.25     12.21
  J17815               0.00    129.89      1.23
  J50584              -0.00    123.48     -0.13
  J1434                0.00    124.84     -5.28
  J34203               0.00    135.88     14.88
  J50588               0.00    125.37      2.28
  J50604              -0.00    124.39     -3.23
  J66988              -0.00    125.21     -1.37
  J66991              -0.00    107.11     -4.01
  J17838               0.00    126.83     -3.92
  J34223              -0.00    125.25     -4.08
  J50611               0.00    121.32      1.59
  J34227              -0.00    125.39     -0.84
  J66994              -0.00    108.30     -1.08
  J1460                0.00    125.68      3.07
  J1465                0.00    125.72      1.07
  J34235               0.00    120.38     -1.81
  J34242              -0.00    122.72     -1.72
  J17859               0.00    121.61      1.31
  J1477                0.00    126.70     -2.15
  J1481                0.00    124.83     -5.34
  J50637               0.00    126.64      0.64
  J17874               0.00    121.49      1.19
  J1491                0.00    121.93     -1.03
  J17876               0.00    126.28     -0.24
  J50646               0.00    125.28      1.13
  J50647               0.00    126.87      1.13
  J50648               0.06    135.38     11.13
  J17880               0.00    126.81     -4.15
  J50650               0.00    123.27     -0.41
  J50654              -0.00    107.11     -3.71
  J50658               0.00    124.36      0.12
  J50662              -0.00    128.92     -0.76
  J34281               0.00    125.95      0.34
  J1514                0.00    125.68      1.86
  J17902               0.00    126.81     -3.97
  J1518                0.00    124.86     -4.95
  J34289               0.00    126.71     -2.51
  J50676               0.00    121.88      0.42
  J67061              -0.00    124.83     -6.93
  J34295               0.04    128.14      2.62
  J50680              -0.00    125.29     -2.47
  J50692              -0.00    124.83     -6.95
  J50697               0.00    132.14      8.20
  J34316               0.00    125.18      1.69
  J50701               0.00    118.64      0.20
  J17934               0.00    123.56     -0.95
  J50702               0.02    128.37      4.16
  J50704              -0.00    126.76     -2.06
  J50706               0.00    121.40      1.51
  J17945               0.00    136.70     15.66
  J34340               0.00    124.94     -4.23
  J50727              -0.00    124.38     -2.87
  J17960               0.00    126.28     -0.19
  J1578                0.00    125.82      1.29
  J50731              -0.00    125.18     -2.87
  J67119              -0.00    126.85     -2.30
  J17966               0.00    123.58     -1.75
  J1585                0.00    126.72      3.76
  J34357               0.01    121.39      1.22
  J17974               0.01    121.65      0.40
  J1591                0.00    125.83      1.23
  J17977              -0.00    126.81     -4.45
  J50750               0.13    118.71      1.66
  J17983               0.00    123.65     -2.28
  J17984              -0.00    126.28     -0.19
  J50753              -0.00    129.21     -0.33
  J50755              -0.00    124.40     -3.70
  J50756              -0.00    125.44     -1.76
  J17990              -0.00    126.28     -0.20
  J50764               0.00    140.45     19.18
  J1614                0.00    125.83      2.28
  J1618                0.00    124.88     -5.07
  J50772              -0.00    125.30     -2.12
  J18006               0.00    120.96      0.37
  J50776               0.00    126.95      4.30
  J18010               0.00    126.81     -4.27
  J1627                0.00    125.83      2.67
  J1628                0.00    126.81     -0.45
  J50791               0.00    128.28      3.46
  J50795               0.00    125.51      2.67
  J18028               0.00    127.72     -0.68
  J50801               0.03    145.62     25.50
  J18035               0.00    126.77     -5.56
  J50804              -0.00    107.11     -4.90
  J50817               0.00    126.87      1.33
  J18055              -0.00    126.81     -3.76
  J1674                0.00    120.74     -1.39
  J50833              -0.00    107.11     -4.82
  J34450              -0.00    125.20     -0.19
  J34452               0.02    119.45      0.06
  J50839              -0.00    126.77     -3.04
  J50845               0.01    125.15      0.81
  J18078               0.00    126.81     -4.55
  J50849              -0.00    125.03     -1.90
  J50851              -0.00    107.11     -3.97
  J50853               0.00    128.92     -1.17
  J67238              -0.00    126.77     -6.59
  J50855              -0.00    117.89     -0.03
  J67242              -0.00    124.82     -4.66
  J67245               0.00    122.58      1.35
  J1710                0.00    129.27      6.04
  J50863               0.00    125.57      1.41
  J1718                0.00    126.01      0.45
  J67255               0.00    119.13      0.03
  J1721                0.00    124.90     -5.37
  J50879              -0.00    118.10     -0.51
  J67264              -0.00    123.89     -2.55
  J50882              -0.00    124.62     -1.11
  J50883               0.00    120.23      1.34
  J1732                0.00    126.01      0.76
  J50887               0.01    120.12      0.77
  J50888              -0.00    107.11     -6.04
  J67273               0.00    126.83      0.29
  J50892              -0.00    126.64     -1.44
  J1747                0.00    126.00      1.24
  J1753                0.00    126.00      1.54
  J67290              -0.00    125.20     -1.15
  J50911              -0.00    126.70     -0.22
  J50917               0.00    128.08     -1.53
  J1766                0.00    125.93      2.10
  J1768                0.00    126.02      1.60
  J50921              -0.00    126.59     -0.59
  J50922              -0.00    122.60     -1.27
  J50924               0.00    131.07      7.21
  J50935               0.01    122.45      0.98
  J1787               -0.00    124.82     -4.95
  J67325              -0.00    128.91     -0.84
  J50941              -0.00    125.46     -1.31
  J1792                0.00    115.04      1.36
  J50946               0.01    124.68      1.66
  J50952              -0.00    125.23     -1.13
  J67337               0.00    119.29     -0.10
  J50956               0.00    128.86      0.12
  J1806                0.00    132.91     10.28
  J18192               0.00    126.81     -3.02
  J50961              -0.00    118.36     -0.36
  J1816                0.00    124.91     -5.07
  J50970               0.01    124.28      0.35
  J1820                0.00    124.82     -4.80
  J50973               0.00    121.57     -0.67
  J67361               0.00    124.71      1.13
  J67365              -0.00    107.11     -1.43
  J67367              -0.00    126.85     -2.40
  J50984               0.00    126.77     -4.04
  J67369              -0.00    122.09     -0.43
  J18218               0.00    135.24     13.88
  J50992              -0.00    108.08     -1.45
  J67376               0.00    129.42      5.39
  J50994               0.01    120.03      0.54
  J50998               0.00    125.22     -1.70
  J67383              -0.00    125.05     -0.76
  J67387               0.00    129.11      4.74
  J18235               0.00    121.44      1.44
  J51005               0.00    118.78     -0.60
  J67393              -0.00    124.40     -3.39
  J18241               0.00    126.81     -3.16
  J51013              -0.00    126.77     -3.96
  J67399               0.01    129.43      5.38
  J1864                0.00    115.08      0.51
  J18251               0.00    118.70      0.51
  J18252               0.00    126.81     -3.28
  J51021               0.01    124.52      2.55
  J34637              -0.00    125.23     -4.35
  J67407              -0.00    129.13     -5.63
  J67411              -0.00    128.74     -2.80
  J67410               0.00    125.62      6.97
  J67413               0.00    125.47      5.99
  J67415              -0.00    107.11     -4.13
  J67417               0.00    128.03     -1.74
  J1880                0.00    119.58     -1.55
  J67416               0.00    125.27      2.33
  J67419               0.00    128.03     -1.95
  J67421               0.00    125.61      7.16
  J67424               0.00    126.45     -1.57
  J34658               0.00    121.50      1.24
  J67426               0.00    107.11     -4.78
  J18275               0.00    127.88     -1.08
  J67431               0.00    125.67      5.60
  J18280               0.01    136.42     15.55
  J67434               0.00    127.70     10.80
  J67441              -0.00    126.74     -0.93
  J1905                0.00    126.85     -1.20
  J67443              -0.00    107.11     -4.55
  J34675               0.00    121.51      0.54
  J1907                0.00    126.85     -1.18
  J1911                0.00    126.38      2.25
  J67449              -0.00    107.11     -4.34
  J67453              -0.00    107.11     -4.68
  J67452               0.12    142.61     19.19
  J67455              -0.00    107.11     -4.70
  J51075               0.00    126.80     -4.44
  J51082              -0.00    126.76     -1.80
  J1931                0.00    126.85     -1.95
  J67470               0.00    107.11     -4.84
  J67475              -0.00    107.11     -4.42
  J51094               0.00    125.99      1.10
  J67480              -0.00    107.11     -4.44
  J67483               0.00    126.79     -0.30
  J67482               0.00    126.75     -0.68
  J67484              -0.00    107.11     -4.77
  J67489               0.00    107.11     -4.34
  J1953                0.00    124.82     -4.64
  J67488              -0.00    126.77     -0.60
  J51106              -0.00    125.21     -3.40
  J18342               0.00    129.60      1.39
  J67495              -0.00    107.11     -4.58
  J18346               0.00    123.89     -2.59
  J51117              -0.00    125.20     -4.48
  J51118              -0.00    129.22     -7.19
  J67507              -0.00    118.84     -2.29
  J1973                0.00    126.85     -2.33
  J51126              -0.00    125.25     -1.62
  J67518               0.00    126.77     -0.66
  J51135              -0.00    125.01     -0.92
  J67520              -0.00    125.01     -2.68
  J67522              -0.00    107.11     -5.86
  J67526              -0.00    107.11     -4.55
  J51143              -0.00    125.30     -3.52
  J67531               0.00    126.77     -0.62
  J67530              -0.00    107.11     -4.86
  J51150               0.00    126.81     -3.68
  J67535              -0.00    107.11     -4.34
  J51151              -0.00    107.11     -3.61
  J18384               0.00    136.35     15.45
  J51154               0.00    121.71      1.20
  J2002                0.00    136.22     13.27
  J67541              -0.00    107.11     -4.53
  J18389               0.00    121.16      1.41
  J67540               0.00    130.28      6.99
  J67542              -0.00    107.11     -4.36
  J51162               0.00    126.64      1.02
  J67548               0.00    126.22      0.45
  J67551               0.00    118.13      0.17
  J51166              -0.00    119.52     -1.97
  J34784              -0.00    126.96     -0.62
  J51169               0.01    127.85      2.25
  J67554               0.00    125.44     -0.69
  J67556               0.00    122.57      0.02
  J67563               0.00    125.30     -3.18
  J51181              -0.00    108.08     -1.62
  J2030                0.00    124.94     -4.87
  J51182               0.00    143.12     19.45
  J67567               0.00    125.44     -1.75
  J51183              -0.00    125.44     -1.22
  J67566               0.00    134.32     12.30
  J51186               0.00    120.07      1.02
  J2035                0.00    126.86     -2.26
  J67570               0.00    123.54     -0.22
  J51194              -0.00    118.67     -0.93
  J51196              -0.00    125.01     -2.36
  J51198              -0.00    125.25     -3.30
  J51199              -0.00    125.37     -2.03
  J67587               0.00    125.29     -3.42
  J67586               0.00    125.29     -3.48
  J34821              -0.00    124.41     -2.06
  J67593               0.00    128.34      0.31
  J67595               0.00    130.41     -4.98
  J2058                0.00    126.86     -1.91
  J67594               0.00    147.90     25.00
  J51212              -0.00    107.11     -4.71
  J51214              -0.00    125.19     -0.62
  J67601               0.00    107.11     -3.57
  J67603              -0.00    119.52     -1.96
  J2066                0.00    124.82     -4.88
  J51218               0.00    125.34      2.40
  J67602              -0.00    131.10     -3.49
  J34837               0.00    124.41     -2.98
  J67607              -0.00    119.52     -2.36
  J67608              -0.00    119.52     -2.22
  J67614              -0.00    132.18     -1.19
  J51232              -0.00    124.83     -5.60
  J67627              -0.00    131.06     -3.57
  J51244               0.00    126.71     -1.79
  J67629              -0.00    130.72     -4.15
  J67628              -0.00    119.52     -1.98
  J2093                0.00    126.86     -1.42
  J18478               0.00    134.78     13.19
  J51247              -0.00    125.26     -2.51
  J67633              -0.00    130.18     -5.30
  J2098               -0.00    126.86     -1.50
  J51256               0.00    126.76     -2.32
  J51258               0.00    124.94      0.22
  J67645              -0.00    131.13     -3.44
  J51261               0.00    121.16      1.92
  J67644               0.01    124.82      0.14
  J18496               0.00    126.86     -4.41
  J67649              -0.00    129.64     -6.31
  J67651              -0.00    119.52     -2.00
  J51266               0.00    121.01     -0.14
  J67650              -0.00    129.69     -6.24
  J51268              -0.00    122.41     -2.79
  J67652              -0.00    129.95     -5.78
  J67655              -0.00    129.52     -6.73
  J51270               0.00    140.96     17.77
  J51272               0.00    125.72      4.87
  J2121                0.00    126.86     -0.85
  J18506               0.00    121.18      0.65
  J67659               0.10    118.70      0.04
  J51277               0.02    130.24      9.97
  J51280              -0.00    125.69     -0.54
  J67667               0.00    123.55     -0.28
  J67669              -0.00    123.58     -1.21
  J67673               0.00    126.38      1.19
  J67675              -0.00    107.11     -4.97
  J51290              -0.00    125.29     -3.32
  J67680              -0.00    120.14     -0.16
  J67683               0.00    127.11     -0.19
  J67682              -0.00    129.17     -5.47
  J51301              -0.00    128.76     -7.06
  J2150                0.00    126.86     -0.39
  J2151                0.00    116.15     -0.13
  J67689              -0.00    125.19     -3.22
  J67691               0.00    119.98      0.05
  J51309              -0.00    122.45     -0.74
  J67694               0.00    126.32      0.92
  J18549               0.00    118.78      0.07
  J2165               -0.00    126.86     -0.34
  J18553               0.00    118.78      0.08
  J34938               0.00    107.11     -3.96
  J51325               0.01    149.72     26.39
  J2173                0.00    126.86      0.15
  J51327               0.00    126.73      1.01
  J67719               0.00    124.41     -1.37
  J67722              -0.00    128.95     -1.01
  J67725              -0.00    124.36     -0.88
  J51340              -0.00    125.32     -2.25
  J51342               0.01    141.82     18.10
  J18574               0.00    121.32      1.59
  J51345              -0.00    126.81     -4.73
  J2194                0.00    118.51     -0.25
  J51346              -0.00    125.29     -2.52
  J51347              -0.00    119.77     -0.52
  J67730              -0.00    128.95     -0.89
  J67733              -0.00    124.41     -1.41
  J67734              -0.00    120.79     -1.36
  J51351              -0.00    126.23     -0.67
  J51353               0.06    125.30      1.75
  J67743              -0.00    120.79     -1.69
  J2207                0.00    126.86      0.62
  J51363              -0.00    124.83     -6.96
  J67749               0.00    124.41     -1.43
  J51366               0.00    128.82     -7.40
  J51373               0.00    144.01     20.44
  J18606               0.00    128.03     -1.70
  J67758              -0.00    124.83     -4.28
  J67761              -0.00    129.19     -3.77
  J51378              -0.00    125.18     -2.46
  J18613               0.00    128.03     -1.68
  J67766              -0.00    124.41     -1.41
  J2236                0.00    126.87      0.92
  J67773               0.00    124.41     -1.48
  J67774              -0.00    129.19     -3.95
  J18623              -0.00    123.65     -2.70
  J51394              -0.00    125.25     -3.41
  J51396              -0.00    107.11     -4.22
  J67783               0.00    126.58     -0.96
  J67787               0.00    124.41     -1.41
  J2251                0.00    126.87      1.59
  J35020               0.00    128.37      4.78
  J18636               0.00    121.30      1.62
  J51406               0.01    137.24     19.41
  J2258                0.00    126.87      1.66
  J67800              -0.00    128.95     -0.77
  J51418              -0.00    127.63     -1.79
  J2266                0.00    126.87      1.80
  J51419              -0.00    125.37     -1.33
  J67805              -0.00    129.68     -6.69
  J67804              -0.00    120.79     -1.40
  J67807               0.00    124.41     -1.61
  J51424               0.00    129.66      6.03
  J2272                0.00    124.96     -4.39
  J51426               0.00    130.01      5.83
  J18661               0.00    120.95      1.21
  J51431              -0.00    126.81     -5.05
  J2279                0.00    116.76     -0.03
  J51433              -0.00    128.28     -2.45
  J67816              -0.00    123.27     -0.37
  J51436              -0.00    121.00     -1.87
  J2289                0.00    126.87      2.16
  J67824               0.01    129.04     11.93
  J2292                0.00    126.87      1.62
  J18684               0.00    128.03     -2.52
  J51453               0.00    137.97     16.38
  J18686              -0.00    128.03     -2.56
  J2305                0.00    126.85     -1.02
  J18690               0.00    121.06      1.85
  J67842               0.00    125.21     -1.27
  J67845               0.00    122.51     -0.76
  J51465              -0.00    121.55     -1.27
  J51466              -0.00    125.40     -0.25
  J67850               0.00    118.72      2.86
  J51470              -0.00    125.18     -3.62
  J51474              -0.00    125.45     -1.64
  J67862               0.18    115.81      0.01
  J67864               0.00    120.47      0.70
  J67869              -0.00    122.47     -0.81
  J67868              -0.00    120.92     -1.68
  J2335                0.00    124.85     -6.20
  J67870               0.00    125.21     -1.27
  J35109              -0.00    126.80     -4.17
  J67887              -0.00    125.20     -1.35
  J67891              -0.00    107.11     -3.88
  J18741               0.01    135.56     14.38
  J67896               0.00    125.21     -1.30
  J67901               0.00    119.98      0.46
  J67900              -0.00    126.77     -3.72
  J67905              -0.00    126.98     -1.33
  J67906               0.00    127.22      0.64
  J51526               0.01    118.65      0.23
  J67910               0.00    127.44      0.42
  J35144               0.00    136.08     14.17
  J2377                0.00    124.80     -6.36
  J2383                0.00    117.18      0.21
  J18768               0.00    118.78      0.09
  J51543               0.00    121.39      0.54
  J51550              -0.00    107.11     -5.88
  J67935               0.00    128.34     -5.58
  J67934              -0.00    123.65     -2.68
  J67939               0.00    128.34     -5.57
  J67942               0.00    125.60      0.91
  J35175              -0.00    126.81     -2.94
  J35177               0.00    139.79     17.43
  J35178               0.00    128.78      0.35
  J67946               0.00    128.34     -4.71
  J51564              -0.00    126.81     -3.25
  J67948               0.00    128.34     -4.07
  J67950              -0.00    125.29     -3.27
  J2417                0.00    149.57     26.46
  J67954               0.00    126.97      1.51
  J51572               0.00    124.83     -5.48
  J51573              -0.00    125.29     -3.25
  J67956               0.01    127.14      1.81
  J51575               0.00    118.64      0.07
  J18809               0.00    118.78      0.08
  J67963              -0.00    121.69     -1.62
  J51579               0.00    119.79     -0.19
  J67964               0.10    125.27      0.53
  J51581               0.00    149.97     27.40
  J2431                0.00    124.98     -3.29
  J67971              -0.00    125.19     -3.84
  J51588              -0.00    118.74     -0.20
  J51589              -0.00    122.46     -2.26
  J2439                0.00    117.47      0.58
  J51591               0.01    121.97      0.14
  J2441                0.00    117.47      0.59
  J51594               0.01    117.26      0.35
  J67979               0.00    126.17      0.12
  J51596               0.00    118.63      0.46
  J51602               0.01    125.57      2.94
  J35219               0.00    124.41     -2.97
  J67991               0.00    125.01      0.02
  J67990               0.00    122.46     -1.27
  J67995               0.05    128.79      4.37
  J67996              -0.00    125.30     -2.42
  J51615              -0.00    125.25     -3.90
  J35232               0.00    129.06     -2.53
  J68001               0.01    124.62      0.16
  J51619              -0.00    125.29     -2.87
  J2468                0.00    126.63      1.33
  J68005              -0.00    124.83     -5.40
  J68004              -0.00    124.83     -6.81
  J68009              -0.00    124.97     -4.17
  J35242               0.00    137.07     15.84
  J68011              -0.00    126.86     -1.84
  J51632               0.00    126.76     -2.19
  J35248               0.00    124.83     -7.14
  J68016              -0.00    124.83     -5.60
  J18867               0.00    118.51     -0.05
  J68021               0.00    124.79      0.05
  J68020               0.00    145.22     22.43
  J35255              -0.00    129.06     -2.46
  J68024              -0.00    118.91     -1.77
  J35262              -0.00    126.96     -1.35
  J51650              -0.00    107.11     -2.30
  J51651               0.01    121.60      0.14
  J68036               0.01    122.70      0.73
  J35270               0.00    118.79     -0.32
  J68039              -0.00    128.96     -0.78
  J18888               0.00    123.63     -2.57
  J51658              -0.00    129.59     -5.95
  J51659              -0.00    125.20     -2.37
  J68047               0.01    140.47     18.18
  J68046              -0.00    124.83     -5.73
  J51663               0.00    125.53      2.18
  J51668               0.00    126.60     -0.54
  J68052              -0.00    124.99     -0.01
  J51669               0.01    148.01     27.07
  J2518                0.00    124.90     -5.51
  J51671               0.00    125.22     -4.40
  J68056               0.01    120.38      1.52
  J51684               0.05    122.97      0.02
  J68071               0.00    122.63      0.62
  J2541                0.00    124.88     -5.69
  J51696               0.00    125.27      2.20
  J2544                0.00    124.88     -5.68
  J2545                0.00    125.01     -2.99
  J68080              -0.00    126.71     -2.28
  J51698              -0.00    125.18     -1.45
  J35314               0.00    128.17      0.30
  J51699               0.00    125.51      2.63
  J51700               0.01    128.12      3.41
  J51702              -0.00    126.75     -1.01
  J68091              -0.00    128.34     -4.20
  J2555                0.00    124.89     -5.56
  J51708               0.00    125.15      2.93
  J2561               -0.00    124.82     -5.98
  J68101              -0.00    125.29     -3.04
  J51717              -0.00    125.37     -2.45
  J68104              -0.00    128.98     -1.34
  J2573                0.00    124.79     -5.91
  J51726              -0.00    126.76     -0.72
  J2577                0.00    124.79     -5.87
  J18963               0.00    121.65      0.70
  J35357               0.01    121.14      0.90
  J18979               0.00    123.65     -2.75
  J68133              -0.00    124.83     -6.68
  J68135              -0.00    123.92     -1.75
  J35366               0.09    138.50     16.14
  J18990               0.00    121.19      1.93
  J2607                0.00    117.47      0.83
  J68146              -0.00    124.99     -3.92
  J51763              -0.00    126.36     -0.06
  J2611                0.00    125.01     -2.66
  J51764               0.00    130.09      6.07
  J51768              -0.00    125.47     -0.25
  J51769               0.02    138.49     15.63
  J68173              -0.00    126.96     -1.13
  J68177              -0.00    126.96     -1.12
  J2642                0.00    125.00     -2.56
  J2645                0.00    125.01     -2.72
  J51798               0.02    124.93      0.34
  J68182              -0.00    126.96     -1.06
  J68185               0.00    126.96     -0.89
  J68184              -0.00    126.96     -1.04
  J68187              -0.00    129.06     -1.82
  J68186              -0.00    129.00     -1.67
  J2653                0.00    149.64     26.29
  J51807               0.00    139.57     17.44
  J68192              -0.00    126.96     -0.62
  J68195              -0.00    126.96     -0.57
  J68197              -0.00    126.96     -1.03
  J2661                0.00    126.40      1.25
  J35430               0.00    126.81     -4.56
  J68198              -0.00    126.96     -0.58
  J68200              -0.00    126.96     -0.96
  J35434               0.00    136.17     14.40
  J68204              -0.00    126.96     -0.95
  J2672                0.00    125.01     -2.62
  J51825              -0.00    124.40     -2.54
  J68215              -0.00    126.96     -0.37
  J51832              -0.00    118.64     -0.03
  J35449              -0.00    124.99     -0.07
  J68219              -0.00    126.96     -0.29
  J68218               0.00    164.15     49.35
  J68221              -0.00    124.88     -0.08
  J68220              -0.00    128.98     -0.67
  J19070               0.00    120.93      2.14
  J68229              -0.00    128.94     -0.58
  J51845               0.00    120.93      0.47
  J35462               0.01    142.91     19.18
  J68231              -0.00    126.96     -1.11
  J68233               0.00    126.96     -0.25
  J68236              -0.00    126.96     -0.69
  J19089               0.01    134.86     13.25
  J68243              -0.00    126.96     -0.75
  J2708                0.00    117.54      0.43
  J68245              -0.00    128.99     -1.38
  J51862              -0.00    125.23     -1.47
  J68247              -0.00    126.96     -0.86
  J19095               0.00    134.85     13.24
  J68249              -0.00    126.96     -0.79
  J51867              -0.00    125.27     -2.00
  J51868               0.00    126.52      2.36
  J2717                0.00    120.30     -0.60
  J68255              -0.00    126.96     -1.02
  J68254              -0.00    126.96     -0.49
  J68256              -0.00    126.96     -1.27
  J19106               0.00    123.67     -2.94
  J2722               -0.00    125.01     -2.82
  J51875              -0.00    128.90     -0.61
  J2724                0.00    124.98     -3.06
  J51880               0.01    125.36      3.09
  J68267              -0.00    126.96     -0.49
  J68269               0.00    126.96     -1.04
  J35500              -0.00    126.81     -4.89
  J51885               0.00    125.18      0.92
  J35506              -0.00    125.31     -3.47
  J19123               0.00    121.64      1.16
  J35513               0.00    124.40     -2.97
  J51905              -0.00    128.95     -0.60
  J51906               0.01    135.25     14.02
  J51907               0.00    125.99      1.14
  J68293              -0.00    107.11     -3.87
  J51909               0.01    121.66      0.41
  J68292              -0.00    126.76     -1.77
  J68294               0.00    128.17      3.28
  J51912              -0.00    124.83     -5.37
  J2761                0.00    125.01     -1.82
  J19147               0.00    121.14      2.01
  J68301              -0.00    128.94     -0.53
  J35533              -0.00    129.72     -6.35
  J68305               0.00    126.19      0.70
  J68304               0.00    118.84     -2.08
  J51925               0.00    122.59      1.30
  J68311               0.00    125.41      2.09
  J51928              -0.00    125.26     -3.65
  J51930              -0.00    124.41     -2.67
  J51933               0.01    125.59      2.34
  J2782                0.00    124.96     -4.44
  J51937               0.00    119.80     -0.05
  J51944              -0.00    125.23     -3.32
  J68328               0.01    124.71      1.00
  J51946               0.00    137.24     16.24
  J68331               0.00    149.85     26.66
  J68333              -0.00    130.93     -3.79
  J68334              -0.00    126.85     -1.02
  J51952               0.00    118.64      0.26
  J68336              -0.00    107.11     -4.08
  J35570               0.00    136.24     15.44
  J68345              -0.00    125.19     -2.16
  J19196               0.00    121.02      1.01
  J51965               0.16    121.74      0.05
  J51966              -0.00    124.40     -3.07
  J68353              -0.00    107.11     -3.90
  J68352               0.00    131.63      0.01
  J19202               0.00    118.27      0.19
  J51971               0.00    139.79     17.64
  J51974               0.00    125.28     -1.85
  J51975               0.00    123.27     -0.04
  J68361               0.00    125.45      3.61
  J51978               0.00    121.74      1.07
  J68367              -0.00    118.84     -2.45
  J68371               0.00    125.00      0.02
  J51989               0.00    121.65      0.53
  J51990              -0.00    120.35     -0.72
  J68376               0.00    124.57      3.17
  J51994               0.00    120.07      1.06
  J68378               0.00    126.79      0.38
  J51996               0.00    125.07      0.59
  J2844                0.00    125.01     -2.83
  J68383              -0.00    107.11     -5.25
  J19233               0.00    120.86      2.19
  J68386              -0.00    124.83     -8.23
  J2851                0.00    117.61      0.12
  J52004              -0.00    125.37     -2.00
  J68391              -0.00    129.56     -5.79
  J52006               0.00    128.41     -6.54
  J68390               0.00    123.17     -0.11
  J68397               0.01    117.33      0.46
  J52016               0.01    126.71      1.39
  J68407              -0.00    129.01     -2.03
  J35639               0.05    135.95     14.14
  J68409               0.01    137.97     15.61
  J35640               0.00    126.08      0.03
  J68408               0.01    118.19      0.19
  J52025               0.01    126.09      0.38
  J68411               0.00    117.05      0.22
  J35643               0.00    149.69     26.22
  J2875                0.00    126.27      1.29
  J68415              -0.00    118.83     -2.55
  J52031               0.00    121.67      0.54
  J2879                0.00    125.01     -2.95
  J52032              -0.00    124.83     -5.11
  J68417               0.01    127.94      3.57
  J68416               0.00    127.92      3.28
  J68419              -0.00    128.87     -0.07
  J52035               0.00    121.98     -0.38
  J52037               0.00    120.33      0.81
  J52041              -0.00    125.43     -0.81
  J35659               0.00    124.33      0.84
  J52043              -0.00    127.63     -2.28
  J19275               0.00    134.23     13.05
  J68428              -0.00    119.02     -2.49
  J52045              -0.00    125.18     -2.26
  J52046               0.00    125.57      2.01
  J2896                0.00    126.27      1.14
  J68433              -0.00    124.60     -0.61
  J52048               0.00    118.64      0.44
  J68435               0.01    121.65      0.37
  J19285               0.00    121.61      1.06
  J52055              -0.00    107.11     -3.86
  J52064               0.01    125.41      1.29
  J68449              -0.00    129.54     -6.62
  J52067              -0.00    124.02     -0.14
  J68453              -0.00    119.65     -0.04
  J68452              -0.00    129.01     -1.75
  J52069              -0.00    126.81     -3.25
  J52071               0.00    128.05      3.33
  J68457               0.01    130.37      8.78
  J68461               0.00    124.48      2.46
  J2927                0.00    124.99     -3.94
  J68462               0.00    116.76      0.04
  J52080               0.01    140.03     17.87
  J19316               0.00    129.22      0.49
  J52085               0.00    121.65      0.39
  J68471              -0.00    118.82     -2.55
  J68473              -0.00    107.11     -4.01
  J68472               0.00    126.81     -3.88
  J52092               0.00    123.93      1.02
  J68479              -0.00    129.06     -2.26
  J35713              -0.00    129.21     -0.57
  J35715               0.00    126.08      0.08
  J68485               0.00    107.21     -0.03
  J52102               0.01    132.14      8.13
  J52107               0.00    121.92      0.05
  J68494               0.00    135.17     11.12
  J68497               0.01    161.93     37.36
  J68501              -0.00    118.84     -2.26
  J68505               0.00    146.19     23.10
  J68507               0.00    121.53      1.14
  J52123               0.00    138.49     15.67
  J68506               0.00    132.15      9.35
  J68511               0.01    145.81     21.69
[...]
  J48119               0.06    126.83      1.52
  J64505              -0.00    126.23     -0.63
  J64512              -0.00    122.01     -1.23
  J48131              -0.00    124.06     -3.37
  J48132               0.00    118.29     -0.32
  J64520              -0.00    125.35     -1.51
  J64521               0.00    127.12      0.20
  J64523               0.00    116.99      0.09
  J64526              -0.00    125.01     -4.05
  J15374               0.00    122.02     -1.31
  J64527              -0.00    126.38     -2.88
  J48144              -0.00    126.65     -1.70
  J48145              -0.00    122.07     -0.21
  J64531              -0.00    107.07     -4.13
  J64532               0.01    119.53      0.13
  J64533               0.00    132.65      9.71
  J64534               0.00    124.50     -5.81
  J31767               0.01    124.42      0.48
  J64540               0.01    125.62      0.24
  J64542              -0.00    126.60     -0.59
  J64545               0.00    125.17     -2.22
  J48170               0.00    124.47      0.79
  J48171               0.01    136.27     13.76
  J64555              -0.00    126.31     -4.85
  J48172               0.02    137.55     13.71
  J48173               0.00    119.92      0.12
  J64565               0.00    125.64      1.32
  J64567               0.01    117.07      0.40
  J64568              -0.00    122.16     -2.81
  J64571               0.00    124.62     -6.70
  J48187              -0.00    125.08     -4.22
  J64573              -0.00    128.81     -7.25
  J48189              -0.00    124.07     -2.86
  J64576               0.01    138.63     14.86
  J31808              -0.00    124.84     -0.47
  J48193              -0.00    123.42     -1.67
  J64584               0.00    118.78     -2.30
  J48201              -0.00    125.05     -3.67
  J64586               0.00    124.42      0.85
  J64587              -0.00    128.87     -4.71
  J64589               0.00    124.59      1.77
  J48206              -0.00    126.26     -3.90
  J64590              -0.00    124.62     -6.63
  J48207              -0.00    120.98     -2.10
  J64591              -0.00    107.07     -4.60
  J64592              -0.00    125.00     -1.50
  J31825               0.00    125.10      0.11
  J31828               0.00    126.23     -0.72
  J64598              -0.00    122.03     -1.26
  J31834              -0.00    118.18     -0.38
  J64602               0.00    130.38      1.95
  J48223              -0.00    126.31     -3.88
  J15457               0.00    122.02     -1.17
  J48225              -0.00    124.55     -0.16
  J15461               0.00    126.60     -1.58
  J64614               0.00    125.05      0.43
  J48234               0.01    120.22      1.05
  J64623               0.00    124.56      2.18
  J48239               0.00    120.88      0.43
  J48242               0.11    123.55      0.01
  J48244              -0.00    124.62     -9.29
  J64630               0.01    124.97      0.07
  J48251              -0.00    124.86     -0.63
  J64636               0.01    125.60      0.62
  J64641               0.00    124.30     -0.57
  J48257              -0.00    107.07     -4.81
  J48258               0.00    124.88      0.35
  J64643               1.01    124.45      1.59
  J64644              -0.00    124.29     -0.64
  J15497               0.00    123.52      0.03
  J64653               0.00    124.62     -6.33
  J48269               0.01    146.34     23.89
  J48276              -0.00    119.58     -0.01
  J31895              -0.00    126.25     -2.67
  J48279              -0.00    125.62     -0.86
  J48282              -0.00    126.23     -1.75
  J15514              -0.00    126.60     -1.64
  J48284              -0.00    125.34     -1.53
  J15518               0.00    132.05     10.26
  J31902               0.00    120.77      0.62
  J64670              -0.00    120.73     -1.28
  J64671              -0.00    124.62     -6.77
  J48290               0.00    122.00     -0.72
  J31908              -0.00    119.91     -1.24
  J48296               0.01    135.27     13.35
  J48300              -0.00    125.03     -2.39
  J64686              -0.00    124.62     -7.17
  J48302               0.01    121.22      0.35
  J64687              -0.00    124.86     -2.53
  J64692               0.00    136.73     12.75
  J64693              -0.00    122.52     -2.77
  J31925               0.02    121.16      0.62
  J64694               0.00    124.78      1.75
  J48312              -0.00    124.98     -0.43
  J64696              -0.00    125.16     -3.60
  J64697               0.01    124.42      0.28
  J15546              -0.00    126.60     -1.75
  J31931               0.00    133.61     12.38
  J64699              -0.00    124.62     -6.71
  J48317               0.01    131.04      9.51
  J15555              -0.00    126.60     -1.71
  J48325               0.02    135.06     12.34
  J31942               0.00    132.52     11.81
  J15559               0.00    134.52     12.78
  J64711              -0.00    128.50     -0.73
  J48328               0.00    160.27     36.45
  J64712              -0.00    124.62     -6.77
  J64713              -0.00    124.62     -7.05
  J31945              -0.00    129.23     -7.10
  J64720               0.13    139.62     11.05
  J48336              -0.00    107.07     -4.20
  J64721               0.00    126.61      0.10
  J48337              -0.00    118.50     -0.03
  J48342               0.00    119.53      0.08
  J31959              -0.00    118.41     -0.58
  J64729               0.00    148.84     32.86
  J64741               0.01    119.52      0.55
  J48357               0.01    124.42      1.16
  J48361               0.01    147.79     24.86
  J48363              -0.00    125.02     -5.31
  J15595               0.00    122.22      0.20
  J64754               0.00    119.28      0.19
  J48370              -0.00    128.79     -4.08
  J64755               0.00    121.29     -0.58
  J64757              -2.26    140.83     12.31
  J48378               0.00    124.85     -3.10
  J48379              -0.00    125.01     -3.07
  J15613               0.00    133.54     11.32
  J64767               0.00    121.29     -0.12
  J15621               0.00    126.60     -1.53
  J15625               0.00    126.26     -3.06
  J48395               0.00    124.75      0.91
  J64780               0.00    149.96     26.34
  J15628               0.00    133.60     11.28
  J15630               0.00    126.26     -2.77
  J32018               0.00    122.24      0.96
  J32021              -0.00    119.45     -1.62
  J32024              -0.00    126.26     -3.88
  J15646               0.00    126.26     -2.96
  J32035              -0.00    118.05     -0.58
  J32036               0.00    121.02      0.85
  J32039               0.00    127.02     -0.03
  J48425              -0.00    124.97     -0.05
  J48431               0.00    121.23     -0.11
  J64816              -0.00    120.53     -1.65
  J15668               0.00    134.47     12.73
  J64825              -0.00    107.07     -2.27
  J64826               0.03    123.57      0.00
  J32060               0.01    126.28      0.34
  J64829               0.00    125.57      1.03
  J64831               0.00    121.29     -0.45
  J15680               0.00    126.26     -3.23
  J15685              -0.00    126.60     -1.62
  J64838               0.00    126.16     -0.23
  J64847               0.00    121.22     -0.19
  J48468               0.02    128.31      5.08
  J64853               0.00    126.19     -0.83
  J15702               0.00    126.53     -2.11
  J15708               0.00    126.20     -4.08
  J32095               0.00    126.04     -0.83
  J15713               0.00    126.05     -0.65
  J32100              -0.00    126.24     -1.36
  J64868               0.00    158.93     35.64
  J64870               0.00    143.25     19.95
  J48488               0.00    128.28      4.40
  J15721               0.00    122.20      0.03
  J48491               0.00    125.05      0.89
  J64876               0.00    107.07     -2.21
  J48493              -0.00    124.86     -1.57
  J64881               0.00    126.10     -0.02
  J48505              -0.00    122.00     -0.83
  J15740               0.00    126.26     -3.47
  J48508              -0.00    125.00     -2.73
  J64902              -0.00    129.50     -0.20
  J15755              -0.00    122.20     -0.00
  J64914              -0.00    125.05     -2.11
  J48534              -0.00    120.35     -0.72
  J64918               0.00    122.48      0.58
  J64920              -0.00    129.45     -0.15
  J15774               0.00    126.23     -2.06
  J64928               0.00    122.48      0.16
  J48547              -0.00    125.86     -3.27
  J64932               0.00    122.48      0.55
  J48548               0.00    122.09     -1.04
  J64934               0.00    122.48      0.54
  J48552              -0.00    126.23     -1.21
  J64936               0.00    129.46     -0.08
  J48554               0.00    124.15      0.55
  J64938              -0.00    122.48     -1.14
  J64940              -0.00    122.48     -0.18
  J48557              -0.00    119.94     -0.05
  J64944              -0.00    129.41     -0.35
  J64947               0.00    122.48      0.53
  J15800               0.00    136.27     14.49
  J64955              -0.00    129.44     -0.11
  J48582               0.00    121.24     -0.14
  J64967              -0.00    124.97     -0.46
  J32203               0.00    149.02     33.72
  J64972               0.00    146.56     23.52
  J64977               0.00    131.47     -2.67
  J48596               0.01    125.96      0.64
  J15828               0.00    126.21     -5.10
  J32215               0.00    128.16     -4.99
  J64984              -0.00    126.25     -2.67
  J64985              -0.00    121.87     -0.07
  J48606               0.00    124.47      3.21
  J48609              -0.00    125.00     -4.82
  J64994               0.00    123.75      0.73
  J48611               0.00    129.32     -0.05
  J15847               0.00    122.00     -0.64
  J48615              -0.00    119.20     -1.92
  J65016              -0.00    124.98     -1.74
  J15864               0.00    122.20      0.04
  J65018               0.00    119.83      0.06
  J65023               0.00    124.02     -3.22
  J65027               0.03    124.00      1.01
  J48643              -0.00    124.02     -0.25
  J32259               0.00    149.02     33.98
  J65035              -0.00    126.25     -1.56
  J48659              -0.00    125.08     -3.60
  J15896               0.00    122.00     -0.42
  J48664              -0.00    124.07     -3.18
  J48669              -0.00    129.14     -0.84
  J32293               0.00    126.25     -2.55
  J65061               0.00    124.45      1.63
  J32295              -0.00    125.25     -1.74
  J65065              -0.00    126.25     -1.86
  J15917               0.00    123.53     -0.10
  J48689              -0.00    125.06     -2.27
  J65076               0.00    124.02     -4.31
  J48692               0.00    128.17      4.12
  J32309               0.00    127.67      3.41
  J48693              -0.00    122.09     -0.95
  J15926               0.00    126.60     -2.04
  J15933               0.00    136.27     14.42
  J65092               0.00    124.02     -0.66
  J48710              -0.00    126.25     -2.71
  J48711              -0.00    125.05     -4.16
  J65097              -0.00    125.26     -1.15
  J65107               0.00    124.02     -3.06
  J32345               0.00    126.85      0.53
  J15966               0.00    126.62     -1.97
  J65120               0.01    123.42      0.24
  J32353              -0.00    125.09     -2.79
  J48739               0.00    124.15     -0.02
  J65124              -0.00    131.47     -2.85
  J32358              -0.00    125.20     -3.50
  J15976               0.00    126.06     -0.43
  J48745              -0.00    126.00     -2.20
  J65130               0.00    124.00      0.92
  J32369              -0.00    117.48     -0.32
  J48755               0.00    141.55     17.97
  J65140               0.00    124.02     -4.32
  J15988               0.00    134.00     12.41
  J48759              -0.00    123.04     -2.23
  J65145              -0.00    121.89     -0.08
  J48764              -0.00    123.35     -1.72
  J32385               0.01    122.24      0.72
  J48771              -0.00    123.48     -0.58
  J32394               0.00    129.52     -0.44
  J32395              -0.00    126.28     -0.34
  J65163               0.00    119.81      0.34
  J65164              -0.00    124.58     -6.61
  J48782               0.01    163.02     46.68
  J48785              -0.00    107.07     -4.07
  J48791              -0.00    125.09     -3.64
  J48792              -0.00    124.06     -3.19
  J48795               0.02    130.70      8.42
  J16029              -0.00    126.26     -3.50
  J32413              -0.00    124.85     -0.45
  J65185               0.01    125.08      0.31
  J65187              -0.00    129.13     -0.72
  J16040               0.00    126.26     -3.50
  J48809              -0.00    129.46     -6.00
  J65194               0.01    118.12      1.67
  J16044               0.00    122.20      0.63
  J48813               0.02    145.85     24.15
  J65207              -0.00    125.37     -1.31
  J48824              -0.00    125.05     -0.79
  J48825               0.06    131.89      8.23
  J48827              -0.00    122.00     -1.03
  J65212              -0.00    126.00     -2.03
  J65215              -0.00    124.02     -0.65
  J48832              -0.00    125.02     -1.52
  J48837              -0.00    125.23     -2.31
  J48841              -0.00    118.77     -2.57
  J65225               0.00    122.40     -1.23
  J48842              -0.00    123.45     -1.35
  J32460              -0.00    124.86     -1.43
  J65230               0.01    126.80      3.23
  J65231              -0.00    122.09     -1.03
  J32464               0.01    132.57     11.71
  J32468              -0.00    124.74     -5.03
  J16084               0.00    122.19      0.61
  J48853              -0.00    125.95     -0.13
  J16086               0.00    126.20     -4.95
  J65243              -0.00    122.40     -1.70
  J65254               0.01    136.21     13.20
  J65255              -0.00    124.98     -2.67
  J16108              -0.00    123.53     -0.16
  J65262              -0.00    126.20     -5.29
  J48887              -0.00    125.06     -3.92
  J65271              -0.00    124.98     -2.51
  J48888               0.00    126.83      3.42
  J48890              -0.00    124.98     -1.52
  J16124               0.00    121.99     -0.25
  J65280               0.01    130.74      9.07
  J65282               0.00    126.67      2.94
  J48904               0.01    125.08      0.09
  J65290               0.00    124.97     -0.11
  J48906               0.01    120.13      0.38
  J32522              -0.00    126.25     -1.19
  J48907              -0.00    121.87     -1.28
  J32523               0.00    124.73     -5.45
  J48910              -0.00    118.59     -0.35
  J48912              -0.00    124.98     -1.34
  J65296              -0.00    125.92     -0.25
  J48915               0.00    119.71      0.99
  J65299               0.00    121.30      0.77
  J48918              -0.00    122.51     -0.34
  J48922               0.16    126.03      0.34
  J65306              -0.00    124.62     -5.55
  J48926               0.01    124.75      0.68
  J65314               0.00    124.98     -2.33
  J48931              -0.00    126.25     -2.94
  J65320               0.01    125.09      0.34
  J65321               0.00    122.40     -1.24
  J65322              -0.00    122.08     -2.91
  J32555              -0.00    124.38     -0.39
  J32560               0.00    124.00      0.44
  J32562               0.00    126.30     -4.57
  J65332               0.00    124.62     -5.06
  J65333               0.02    120.98      0.20
  J16186               0.00    133.50     11.70
  J48955               0.00    124.09      0.38
  J16188               0.00    136.22      7.83
  J65342               0.00    122.57      0.66
  J32575               0.01    122.91      1.12
  J65344               0.00    122.40     -0.40
  J65346              -0.00    118.71     -1.77
  J65348              -0.00    125.01     -2.18
  J48965               0.01    130.54      7.86
  J65354              -0.00    122.52     -0.36
  J65357              -0.00    125.86     -0.60
  J32589               0.00    118.08      0.01
  J48976               0.02    120.83      0.28
  J32599               0.00    124.44     -4.63
  J32602              -0.00    124.07     -2.62
  J65370              -0.00    132.17     -1.25
  J65371              -0.00    120.44     -0.59
  J48992               0.02    118.49      0.34
  J48998              -0.00    126.00     -1.60
  J49002              -0.00    125.08     -1.58
  J49008              -0.00    107.07     -6.74
  J65394              -0.00    120.73     -1.27
  J65395               0.00    124.41      1.29
  J65398               0.00    124.98     -2.28
  J65399               0.00    124.98     -4.05
  J65400               0.01    130.73      9.06
  J16253               0.00    126.72     -0.15
  J49022               0.00    136.27     14.35
  J65412               0.00    122.32      0.23
  J65414               0.00    122.32      0.24
  J65417               0.00    124.98     -2.86
  J49039               0.01    127.28      2.77
  J65424               0.00    132.17     -0.99
  J65427               0.00    131.47     -2.85
  J32660               0.00    122.87      0.82
  J65435               0.01    130.73      9.09
  J65436               0.01    124.61      0.32
  J49053              -0.00    126.00     -2.07
  J49056               0.01    124.44      1.95
  J49057               0.01    123.97      1.99
  J65443               0.00    128.93     -7.42
  J16293               0.00    126.23     -2.52
  J65451               0.00    120.42      0.76
  J32688               0.00    122.32     -0.01
  J65458              -0.00    122.52     -0.41
  J49076              -0.00    126.24     -2.82
  J32692              -0.00    118.18     -0.07
  J65463              -0.00    124.86     -2.91
  J65466               0.00    126.83      2.54
  J65469               0.01    126.82      3.06
  J65471               0.01    126.83      2.68
  J16327               0.00    133.50     11.90
  J65482               0.00    122.40     -1.07
  J49099              -0.00    125.16     -2.00
  J32715               0.00    132.48     11.89
  J65487               0.00    122.40     -1.50
  J16337               0.00    122.13      0.32
  J49108               0.01    123.51      0.09
  J16340               0.00    121.72     -0.15
  J32725               0.00    124.42      0.29
  J65493              -0.00    131.47     -2.86
  J65497               0.02    139.34     16.73
  J65498               0.00    126.82      3.07
  J49117               0.00    130.54      6.73
  J16352              -0.00    123.66     -1.86
  J49121               0.01    133.01     11.99
  J49124               0.00    124.92      0.48
  J32741              -0.00    128.21     -6.84
  J65515               0.00    120.73     -1.31
  J49132              -0.00    126.31     -4.10
  J65517               0.00    124.98     -2.82
  J49134               0.00    122.01     -0.24
  J65518               0.00    122.28      0.15
  J65521              -0.00    124.43     -0.13
  J16370               0.00    121.98      0.29
  J16375               0.00    121.98      0.25
  J49144               0.00    124.42      0.23
  J49147               0.01    122.15      0.50
  J65535               0.00    122.36      0.33
  1                    0.00    163.19     46.19
  J17961               0.00    118.67     -0.13
  J73438               0.00    126.00     -2.37
  R73551             -31.59    163.19     -3.01  Reservoir
   